-- This file has been generated by RFSim
-- Copyright (c) 2008 RFDynamics Inc. All rights reserved.

RUNSPEC

TITLE
TEST MODEL

START
01 'JUL' 1995 /

METRIC
UNIFOUT

OIL
WATER
GAS
DISGAS

--NINEPOIN

noecho

NOSIM

IMPLICIT

DIMENS
25 25 3 /

REGDIMS
1  1
/

TABDIMS
  2  2  12  10  1
/

EQLDIMS
 2
/

WELLDIMS
 15  4  1  14 /

GRID
INIT

GRIDFILE
2 /

INCLUDE
'demo3_grid.inc' /


PROPS

STONE1

INCLUDE
'demo3_pvt.inc' /

INCLUDE
'demo3_rp.inc' /

REGIONS
INCLUDE
'demo3_regs.inc' /

SOLUTION
INCLUDE
'demo3_init.inc' /

SUMMARY

ALL
-- RUNSUM
RPTONLY

SCHEDULE
INCLUDE
'demo3_sch.inc' /

END
